sistemas/ieee300.pwf
TITU
IEEE 300 Bus Test System - Summer 1991
DCTE
(Mn) ( Val) (Mn) ( Val) (Mn) ( Val) (Mn) ( Val) (Mn) ( Val) (Mn) ( Val) 
BASE   100. DASE   100. TEPA   1e-8 EXST    .04 TETP     5. TBPA     5.
TLPP     1. TEPR   1e-8 QLST    .04 TLPR   1e-8 TLPQ     2. TSBZ    .01
TSBA     5. ASTP    .05 VSTP     5. TLVC    .05 TLTC    .01 TSFR  .1E-7
ZMAX   500. TLPV     .5 VDVM   200. VDVN    40. TUDC   .001 TADC    .01
PGER    30. TPST    .02 VFLD    70. ZMIN   .001 HIST    470 LFIT     10
ACIT     20 LFCV      1 DCIT     10 VSIT     10 LPIT     50 LFLP     10
PDIT     10 LCRT    200 LPRT     60 CSTP     5. ASDC     1.
ICIT   9999 DMAX   9999 FDIV     2. ICMN   1e-9 VART     5. TSTP     32
ICMV     .5 APAS    90. CPAR    70. VAVT     2. VAVF     5. VMVF    15.
VPVT     2. VPVF     5. VPMF    10. VSVF    20. VINF     1. VSUP     1.
TLSI     0. NDIR    20. STTR     5. TRPT   100. STIR     1. BFPO     1.
LFPO     .1 TLMT     0. TLMF     0. TLMG     0. PARS    10.            
(FULL     0  
(SIGK   1E8  SIGV  1E-6  SIGQ  1E-6  CTOL  1E-7
99999
DBAR
(Num)OETGb(   nome   )Gl( V)( A)( Pg)( Qg)( Qn)( Qm)(Bc  )( Pl)( Ql)( Sh)Are(Vf)M(1)(2)(3)(4)(5)(6)(7)(8)(9)(10
    1  0 ABarra------1  10285.95                            90. 49.0       1                                                                                                                                    
    2  0 ABarra------2  10357.74                            56. 15.0       1                                                                                                                                    
    3  0 BBarra------3  09976.64                            20.  0.0       1                                                                                                                                    
    4  0 CBarra------4  10304.71                                           1                                                                                                                                    
    5  0 ABarra------5  10194.68                           353.130.0       1                                                                                                                                    
    6  0 ABarra------6  10316.99                           120. 41.0       1                                                                                                                                    
    7  0 BBarra------7  09936.19                                           1                                                                                                                                    
    8  1 ABarra------8  10152.40-5.00 0.00 -10. 10.0     8  58. 14.0       1                                                                                                                                    
    9  0 ABarra------9  10032.85                            96. 43.0       1                                                                                                                                    
   10  1 BBarra-----10  10201.35-5.00 0.00 -20. 20.0    10 148. 33.0       1                                                                                                                                    
   11  0 ABarra-----11  10052.46                            83. 21.0       1                                                                                                                                    
   12  0 BBarra-----12  09975.21                                           1                                                                                                                                    
   13  0 ABarra-----13  0997-0.5                            58. 10.0       1                                                                                                                                    
   14  0 ABarra-----14  0999-4.8                           160. 60.0       1                                                                                                                                    
   15  0 ABarra-----15  1034-8.5                          126.7 23.0       1                                                                                                                                    
   16  0 CBarra-----16  1031-2.6                                           1                                                                                                                                    
   17  0 ABarra-----17  1064-13.                           561.220.0       1                                                                                                                                    
   19  0 BBarra-----19  09821.08                                           1                                                                                                                                    
   20  1 ABarra-----20  1001-2.4-10.0 0.00 -20. 20.0    20 595.120.0       1                                                                                                                                    
   21  0 BBarra-----21  09751.62                            77.  1.0       1                                                                                                                                    
   22  0 ABarra-----22  0996-1.9                            81. 23.0       1                                                                                                                                    
   23  0 ABarra-----23  10503.94                            21.  7.0       1                                                                                                                                    
   24  0 BBarra-----24  10056.02                                           1                                                                                                                                    
   25  0 ABarra-----25  10231.44                            45. 12.0       1                                                                                                                                    
   26  0 ABarra-----26  0998-1.7                            28.  9.0       1                                                                                                                                    
   27  0 ABarra-----27  0975-4.9                            69. 13.0       1                                                                                                                                    
   33  0 ABarra-----33  1024-12.                            55.  6.0       1                                                                                                                                    
   34  0 CBarra-----34  1041-7.9                                           1                                                                                                                                    
   35  0 ABarra-----35  0975-25.                                           1                                                                                                                                    
   36  0 BBarra-----36  1001-22.                                           1                                                                                                                                    
   37  0 ABarra-----37  1020-11.                            85. 32.0       1                                                                                                                                    
   38  0 ABarra-----38  1020-12.                           155. 18.0       1                                                                                                                                    
   39  0 CBarra-----39  1053-5.8                                           1                                                                                                                                    
   40  0 ABarra-----40  1021-12.                            46.-21.0       1                                                                                                                                    
   41  0 ABarra-----41  1029-10.                            86.  0.0       1                                                                                                                                    
   42  0 CBarra-----42  1044-7.4                                           1                                                                                                                                    
   43  0 ABarra-----43  1000-16.                            39.  9.0       1                                                                                                                                    
   44  0 ABarra-----44  1008-17.                           195. 29.0       1                                                                                                                                    
   45  0 BBarra-----45  1021-14.                                           1                                                                                                                                    
   46  0 CBarra-----46  1034-11.                                           1                                                                                                                                    
   47  0 ABarra-----47  0977-23.                            58. 11.8       1                                                                                                                                    
   48  0 ABarra-----48  1001-16.                            41. 19.0       1                                                                                                                                    
   49  0 ABarra-----49  1047-2.9                            92. 26.0       1                                                                                                                                    
   51  0 ABarra-----51  1025-8.1                            -5.  5.0       1                                                                                                                                    
   52  0 ABarra-----52  0997-11.                            61. 28.0       1                                                                                                                                    
   53  0 ABarra-----53  0995-17.                            69.  3.0       1                                                                                                                                    
   54  0 ABarra-----54  1005-16.                            10.  1.0       1                                                                                                                                    
   55  0 ABarra-----55  1015-12.                            22. 10.0       1                                                                                                                                    
   57  0 ABarra-----57  1033-8.0                            98. 20.0       1                                                                                                                                    
   58  0 ABarra-----58  0991-5.9                            14.  1.0       1                                                                                                                                    
   59  0 ABarra-----59  0978-5.2                           218.106.0       1                                                                                                                                    
   60  0 BBarra-----60  1024-9.5                                           1                                                                                                                                    
   61  0 ABarra-----61  0990-3.4                           227.110.0       1                                                                                                                                    
   62  0 BBarra-----62  1016-1.1                                           1                                                                                                                                    
   63  1 ABarra-----63  0958-17.           -25. 25.0    63  70. 30.0       1                                                                                                                                    
   64  0 BBarra-----64  0948-12.                                           1                                                                                                                                    
   69  0 ABarra-----69  0963-25.                                           1                                                                                                                                    
   70  0 ABarra-----70  0951-35.                            56. 20.0       1                                                                                                                                    
   71  0 ABarra-----71  0979-29.                           116. 38.0       1                                                                                                                                    
   72  0 ABarra-----72  0969-27.                            57. 19.0       1                                                                                                                                    
   73  0 ABarra-----73  0977-25.                           224. 71.0       1                                                                                                                                    
   74  0 BBarra-----74  0996-22.                                           1                                                                                                                                    
   76  1 ABarra-----76  0963-26.  0.0 20.0  12. 35.0    76 208.107.0       1                                                                                                                                    
   77  0 ABarra-----77  0983-24.                            74. 28.0       1                                                                                                                                    
   78  0 ABarra-----78  0990-24.                                           1                                                                                                                                    
   79  0 ABarra-----79  0982-24.                            48. 14.0       1                                                                                                                                    
   80  0 ABarra-----80  0987-24.                            28.  7.0       1                                                                                                                                    
   81  0 CBarra-----81  1034-18.                                           1                                                                                                                                    
   84  1 ABarra-----84  1025-17.375.0 0.00-240.240.0    84  37. 13.0       1                                                                                                                                    
   85  0 BBarra-----85  0987-17.                                           1                                                                                                                                    
   86  0 BBarra-----86  0990-14.                                           1                                                                                                                                    
   87  0 BBarra-----87  0992-7.7                                           1                                                                                                                                    
   88  0 BBarra-----88  1015-20.                                           1                                                                                                                                    
   89  0 ABarra-----89  1031-11.                           44.2  0.0       1                                                                                                                                    
   90  0 ABarra-----90  1027-11.                            66.  0.0       1                                                                                                                                    
   91  1 ABarra-----91  1052-9.4155.0 0.00 -11. 96.0    91 17.4  0.0       1                                                                                                                                    
   92  1 ABarra-----92  1052-6.2290.0 0.00-153.153.0    92 15.8  0.0       1                                                                                                                                    
   94  0 ABarra-----94  0993-9.4                           60.3  0.0       1                                                                                                                                    
   97  0 ABarra-----97  1018-13.                           39.9  0.0       1                                                                                                                                    
   98  1 ABarra-----98  1000-14.68.00 0.00 -30. 56.0    98 66.7  0.0       1                                                                                                                                    
   99  0 ABarra-----99  0989-20.                           83.5  0.0       1                                                                                                                                    
  100  0 ABarra----100  1006-14.                             0.  0.0       1                                                                                                                                    
  102  0 ABarra----102  1000-15.                           77.8  0.0       1                                                                                                                                    
  103  0 ABarra----103  1028-12.                            32.  0.0       1                                                                                                                                    
  104  0 ABarra----104  0995-17.                            8.6  0.0       1                                                                                                                                    
  105  0 ABarra----105  1022-12.                           49.6  0.0       1                                                                                                                                    
  107  0 ABarra----107  1009-16.                            4.6  0.0       1                                                                                                                                    
  108  1 ABarra----108  0990-20.117.0 0.00 -24. 77.0   108112.1  0.0       1                                                                                                                                    
  109  0 ABarra----109  0974-26.                           30.7  0.0       1                                                                                                                                    
  110  0 ABarra----110  0973-24.                            63.  0.0       1                                                                                                                                    
  112  0 ABarra----112  0972-28.                           19.6  0.0       1                                                                                                                                    
  113  0 ABarra----113  0970-25.                           26.2  0.0       1                                                                                                                                    
  114  0 ABarra----114  0974-28.                           18.2  0.0       1                                                                                                                                    
  115  0 ABarra----115  0960-13.                                           1                                                                                                                                    
  116  0 ABarra----116  1024-12.                                           1                                                                                                                                    
  117  0 ABarra----117  0934-4.7                                     325.  1                                                                                                                                    
  118  0 ABarra----118  0929-4.1                           14.1650.0       1                                                                                                                                    
  119  1 ABarra----119  10435.171930. 0.00-500.1500.   119                 1                                                                                                                                    
  120  0 ABarra----120  0958-8.7                           777.215.055.00  1                                                                                                                                    
  121  0 ABarra----121  0987-12.                           535. 55.0       1                                                                                                                                    
  122  0 ABarra----122  0972-14.                          229.1 11.8       1                                                                                                                                    
  123  0 ABarra----123  1000-17.                            78.  1.4       1                                                                                                                                    
  124  1 ABarra----124  1023-13.240.0 0.00 -60.120.0   124276.4 59.3       1                                                                                                                                    
  125  1 ABarra----125  1010-18.           -25.200.0   125514.8 82.7       1                                                                                                                                    
  126  0 ABarra----126  0997-12.                           57.9  5.1       1                                                                                                                                    
  127  0 BBarra----127  1000-10.                          380.8 37.0       1                                                                                                                                    
  128  0 BBarra----128  1002-4.7                                           1                                                                                                                                    
  129  0 BBarra----129  1002-4.4                                           1                                                                                                                                    
  130  0 BBarra----130  10195.56                                           1                                                                                                                                    
  131  0 BBarra----131  09866.06                                           1                                                                                                                                    
  132  0 BBarra----132  10043.04                                           1                                                                                                                                    
  133  0 BBarra----133  1002-5.4                                           1                                                                                                                                    
  134  0 BBarra----134  1022-8.0                                           1                                                                                                                                    
  135  0 BBarra----135  1019-6.7                          169.2 41.6       1                                                                                                                                    
  136  0 BBarra----136  10471.54                           55.2 18.2       1                                                                                                                                    
  137  0 BBarra----137  1047-1.4                          273.6 99.8       1                                                                                                                                    
  138  1 BBarra----138  1055-6.3-193. 0.00-125.350.0   138826.7135.2       1                                                                                                                                    
  139  0 ABarra----139  1011-3.5                           595. 83.3       1                                                                                                                                    
  140  0 BBarra----140  1043-3.4                          387.7114.7       1                                                                                                                                    
  141  1 BBarra----141  10510.05281.0 0.00 -50. 75.0   141 145. 58.0       1                                                                                                                                    
  142  0 BBarra----142  1015-2.7                           56.5 24.5       1                                                                                                                                    
  143  1 BBarra----143  10434.03696.0 0.00-100.300.0   143 89.5 35.5       1                                                                                                                                    
  144  0 BBarra----144  1016-0.7                                           1                                                                                                                                    
  145  0 BBarra----145  1008-0.1                            24. 14.0       1                                                                                                                                    
  146  1 BBarra----146  10524.3284.00 0.00 -15. 35.0   146                 1                                                                                                                                    
  147  1 BBarra----147  10528.36217.0 0.00 -50.100.0   147                 1                                                                                                                                    
  148  0 BBarra----148  10570.28                            63. 25.0       1                                                                                                                                    
  149  1 BBarra----149  10735.23103.0 0.00 -25. 50.0   149                 1                                                                                                                                    
  150  0 BBarra----150  09866.34                                           1                                                                                                                                    
  151  0 BBarra----151  10044.13                                           1                                                                                                                                    
  152  1 BBarra----152  10539.24372.0 0.00 -50.175.0   152  17.  9.0       1                                                                                                                                    
  153  1 BBarra----153  104310.4216.0 0.00 -50. 90.0   153                 1                                                                                                                                    
  154  0 ABarra----154  0966-1.8                            70.  5.034.50  1                                                                                                                                    
  155  0 BBarra----155  10176.75                           200. 50.0       1                                                                                                                                    
  156  1 ABarra----156  09635.15           -10. 15.0   156  75. 50.0       1                                                                                                                                    
  157  0 BBarra----157  0984-11.                          123.5-24.3       1                                                                                                                                    
  158  0 BBarra----158  0998-11.                                           1                                                                                                                                    
  159  0 BBarra----159  0986-9.8                            33. 16.5       1                                                                                                                                    
  160  0 BBarra----160  0999-12.                                           1                                                                                                                                    
  161  0 BBarra----161  10368.85                            35. 15.0       1                                                                                                                                    
  162  0 BBarra----162  099118.5                            85. 24.0       1                                                                                                                                    
  163  0 BBarra----163  10412.91                             0.  0.4       1                                                                                                                                    
  164  0 BBarra----164  09839.66                                    -212.  1                                                                                                                                    
  165  0 BBarra----165  100026.3                                           1                                                                                                                                    
  166  0 BBarra----166  099730.2                                    -103.  1                                                                                                                                    
  167  0 BBarra----167  0971-6.9                          299.9 95.7       1                                                                                                                                    
  168  0 BBarra----168  1002-4.8                                           1                                                                                                                                    
  169  0 BBarra----169  0987-6.6                                           1                                                                                                                                    
  170  1 ABarra----170  09290.09205.0 0.00 -40. 90.0   170481.8205.0       1                                                                                                                                    
  171  1 ABarra----171  0982-9.9           -50.150.0   171763.6291.1       1                                                                                                                                    
  172  0 ABarra----172  1024-6.2                           26.5  0.0       1                                                                                                                                    
  173  0 ABarra----173  0983-12.                          163.5 43.053.00  1                                                                                                                                    
  174  0 ABarra----174  1062-2.6                                           1                                                                                                                                    
  175  0 ABarra----175  0973-7.2                           176. 83.0       1                                                                                                                                    
  176  1 ABarra----176  10524.67228.0 0.00 -45. 90.0   176   5.  4.0       1                                                                                                                                    
  177  1 ABarra----177  10070.6284.00 0.00 -15. 35.0   177  28. 12.0       1                                                                                                                                    
  178  0 ABarra----178  0939-6.5                          427.4173.6       1                                                                                                                                    
  179  0 ABarra----179  0969-9.3                            74. 29.045.00  1                                                                                                                                    
  180  0 ABarra----180  0979-3.0                           69.5 49.3       1                                                                                                                                    
  181  0 BBarra----181  1051-1.3                           73.4  0.0       1                                                                                                                                    
  182  0 BBarra----182  1044-4.1                          240.7 89.0       1                                                                                                                                    
  183  0 ABarra----183  09717.12                            40.  4.0       1                                                                                                                                    
  184  0 BBarra----184  1038-6.8                          136.8 16.6       1                                                                                                                                    
  185  1 BBarra----185  1052-4.3200.0 0.00 -50. 80.0   185                 1                                                                                                                                    
  186  1 BBarra----186  10652.171200. 0.00-100.400.0   186 59.8 24.3       1                                                                                                                                    
  187  1 BBarra----187  10651.401200. 0.00-100.400.0   187 59.8 24.3       1                                                                                                                                    
  188  0 BBarra----188  1053-0.7                          182.6 43.6       1                                                                                                                                    
  189  0 DBarra----189  0997-25.                             7.  2.0       1                                                                                                                                    
  190  1 CBarra----190  1055-20.475.0 0.00-300.300.0   190          -150.  1                                                                                                                                    
  191  1 BBarra----191  104312.21973. 0.00-10001000.   191 489. 53.0       1                                                                                                                                    
  192  0 BBarra----192  0937-11.                           800. 72.0       1                                                                                                                                    
  193  0 DBarra----193  0989-26.                                           1                                                                                                                                    
  194  0 CBarra----194  1048-19.                                           1                                                                                                                                    
  195  0 CBarra----195  1035-20.                                           1                                                                                                                                    
  196  0 ABarra----196  0969-25.                            10.  3.0       1                                                                                                                                    
  197  0 ABarra----197  0990-23.                            43. 14.0       1                                                                                                                                    
  198  1 ABarra----198  1015-20.424.0 0.00-260.260.0   198  64. 21.0       1                                                                                                                                    
  199  0 ABarra----199  0952-26.                            35. 12.0       1                                                                                                                                    
  200  0 ABarra----200  0955-25.                            27. 12.0       1                                                                                                                                    
  201  0 DBarra----201  0969-27.                            41. 14.0       1                                                                                                                                    
  202  0 DBarra----202  0990-25.                            38. 13.0       1                                                                                                                                    
  203  0 ABarra----203  1003-22.                            42. 14.0       1                                                                                                                                    
  204  0 DBarra----204  0971-25.                            72. 24.0       1                                                                                                                                    
  205  0 DBarra----205  0983-26.                             0. -5.0       1                                                                                                                                    
  206  0 DBarra----206  0999-27.                            12.  2.0       1                                                                                                                                    
  207  0 DBarra----207  1013-27.                           -21.-14.2       1                                                                                                                                    
  208  0 DBarra----208  0992-26.                             7.  2.0       1                                                                                                                                    
  209  0 DBarra----209  0999-25.                            38. 13.0       1                                                                                                                                    
  210  0 ABarra----210  0978-24.                                           1                                                                                                                                    
  211  0 ABarra----211  1001-23.                            96.  7.0       1                                                                                                                                    
  212  0 EBarra----212  1013-22.                                           1                                                                                                                                    
  213  1 FBarra----213  1010-11.272.0 0.00-150.150.0   213                 1                                                                                                                                    
  214  0 EBarra----214  0991-17.                            22. 16.0       1                                                                                                                                    
  215  0 EBarra----215  0986-20.                            47. 26.0       1                                                                                                                                    
  216  0 EBarra----216  0975-22.                           176.105.0       1                                                                                                                                    
  217  0 EBarra----217  1021-22.                           100. 75.0       1                                                                                                                                    
  218  0 EBarra----218  1007-22.                           131. 96.0       1                                                                                                                                    
  219  0 CBarra----219  1055-21.                                           1                                                                                                                                    
  220  1 EBarra----220  1008-21.100.0 0.00 -60. 60.0   220 285.100.0       1                                                                                                                                    
  221  1 EBarra----221  1000-22.450.0 0.00-320.320.0   221 171. 70.0       1                                                                                                                                    
...
99999                                                                                                                                                                                                           
DLIN
(De )d O d(Pa )NcEPM( R% )( X% )(Mvar)(Tap)(Tmn)(Tmx)(Phs)(Bc  )(Cn)(Ce)Ns(Cq)(1)(2)(3)(4)(5)(6)(7)(8)(9)(10                                                                                                    
   37      9001 1    0.006 0.046      1.0080.9041.104             0  15.                                                                                                                                        
 9001      9005 1   00.08000.348                                                                                                                                                                                
 9001      9006 1   02.43943.682      .9668.93911.147       9006                                                                                                                                                
 9001      9012 1   03.62464.898      .9796.93911.147       9012                                                                                                                                                
 9005      9051 1   01.57837.486      1.043                 9051                                                                                                                                                
 9005      9052 1   01.57837.486      .9391.93911.147       9052                                                                                                                                                
 9005      9053 1   01.60238.046      1.043                 9053                                                                                                                                                
 9005      9054 1   00.00015.200      1.043                                                                                                                                                                     
 9005      9055 1   00.00080.000      1.043                                                                                                                                                                     
 9006      9007 1   05.55824.666                                                                                                                                                                                
 9006      9003 1   11.11849.332                                                                                                                                                                                
 9006      9003 2   11.11849.332                                                                                                                                                                                
 9012      9002 1   07.62243.286                                                                                                                                                                                
 9012      9002 2   07.62243.286                                                                                                                                                                                
 9002      9021 1   05.37007.026                                                                                                                                                                                
 9021      9023 1   110.6895.278                                                                                                                                                                                
 9021      9022 1   44.364281.52      1.000                                                                                                                                                                     
 9002      9024 1   50.748322.02      1.000                                                                                                                                                                     
 9023      9025 1   66.688394.40      1.000                                                                                                                                                                     
 9023      9026 1   61.130361.52      1.000                                                                                                                                                                     
 9007      9071 1   44.120296.68      1.000                                                                                                                                                                     
 9007      9072 1   30.792205.70      1.000                                                                                                                                                                     
 9007      9003 1   05.58024.666                                                                                                                                                                                
 9003      9031 1   73.633467.24      1.000                                                                                                                                                                     
 9003      9032 1   76.978488.46      1.000                                                                                                                                                                     
 9003      9033 1   75.732480.56      1.000                                                                                                                                                                     
 9003      9044 1   07.37806.352                                                                                                                                                                                
 9044      9004 1   03.83202.894                                                                                                                                                                                
 9004      9041 1   36.614245.60      1.000                                                                                                                                                                     
 9004      9042 1   105.93545.36      1.000                                                                                                                                                                     
 9004      9043 1   15.670169.94      1.000                                                                                                                                                                     
 9003      9034 1   13.006139.12      1.000                                                                                                                                                                     
 9003      9035 1   54.484345.72      1.000                                                                                                                                                                     
 9003      9036 1   15.426167.29      1.000                                                                                                                                                                     
 9003      9037 1   38.490257.12      1.000                                                                                                                                                                     
 9003      9038 1   44.120296.68      1.000                                                                                                                                                                     
 9012      9121 1   23.55299.036                                                                                                                                                                                
 9053      9533 1   00.00075.000      .9583                                                                                                                                                                     
    1         5 1   00.10000.600                                                                                                                                                                                
    2         6 1   00.10000.900                                                                                                                                                                                
    2         8 1   00.60002.700   5.4                                                                                                                                                                          
    3         7 1   00.00000.300                                                                                                                                                                                
    3        19 1   00.80006.900  13.9                                                                                                                                                                          
    3       150 1   00.10000.700                                                                                                                                                                                
    4        16 1   00.20001.900 112.7                                                                                                                                                                          
    5         9 1   00.60002.900   1.8                                                                                                                                                                          
    7        12 1   00.10000.900   7.0                                                                                                                                                                          
    7       131 1   00.10000.700   1.4                                                                                                                                                                          
    8        11 1   01.30005.950   3.3                                                                                                                                                                          
    8        14 1   01.30004.200   8.1                                                                                                                                                                          
    9        11 1   00.60002.700   1.3                                                                                                                                                                          
   11        13 1   00.80003.400   1.8                                                                                                                                                                          
   12        21 1   00.20001.500  11.8                                                                                                                                                                          
   13        20 1   00.60003.400   1.6                                                                                                                                                                          
   14        15 1   01.40004.200   9.7                                                                                                                                                                          
   15        37 1   06.50024.800  12.1                                                                                                                                                                          
   15        89 1   09.90024.800   3.5                                                                                                                                                                          
   15        90 1   09.60036.300   4.8                                                                                                                                                                          
   16        42 1   00.20002.200 128.0                                                                                                                                                                          
   19        21 1   00.20001.800   3.6                                                                                                                                                                          
   19        87 1   01.30008.000  15.1                                                                                                                                                                          
   20        22 1   01.60003.300   1.5                                                                                                                                                                          
   20        27 1   06.90018.600   9.8                                                                                                                                                                          
   21        24 1   00.40003.400  28.0                                                                                                                                                                          
   22        23 1   05.20011.100   5.0                                                                                                                                                                          
   23        25 1   01.90003.900   1.8                                                                                                                                                                          
   24       319 1   00.70006.800  13.4                                                                                                                                                                          
   25        26 1   03.60007.100   3.4                                                                                                                                                                          
   26        27 1   04.50012.000   6.5                                                                                                                                                                          
   26       320 1   04.30013.000   1.4                                                                                                                                                                          
   33        34 1   00.00006.300                                                                                                                                                                                
   33        38 1   00.25001.200   1.3                                                                                                                                                                          
   33        40 1   00.60002.900   2.0                                                                                                                                                                          
   33        41 1   00.70004.300   2.6                                                                                                                                                                          
   34        42 1   00.10000.800   4.2                                                                                                                                                                          
   35        72 1   01.20006.000   0.8                                                                                                                                                                          
   35        76 1   00.60001.400   0.2                                                                                                                                                                          
   35        77 1   01.00002.900   0.3                                                                                                                                                                          
   36        88 1   00.40002.700   4.3                                                                                                                                                                          
...