resultados/Relatorios/ieee300/ieee300-report.txt
February 27, 2024


relatorio do sistema ieee300

solucao do fluxo de potencia via metodo do fluxo de potencia direto (Canizares, 1993)

opcoes de controle ativadas: Nenhum controle ativo!

opcoes de relatorio ativadas: RBAR 



vv relatorio de convergencia vv

 * * * * SISTEMA CONVERGENTE * * * * 

Ponto de Maximo Carregamento: 0.036365
Autovalores: [ 4.98244397e-02  4.93267562e-02  5.01428910e-02  5.02489459e-02
  5.01904382e-02  4.96268907e-02  5.01642146e-02  5.03893374e-02
  5.06733459e-02  5.05042700e-02  5.05514373e-02  5.04566684e-02
  5.16042196e-02  5.31916980e-02  5.37497653e-02  5.19354088e-02
  5.93250343e-02  5.16632512e-02  5.19427244e-02  5.15463988e-02
  5.22648809e-02  4.88880784e-02  4.99430596e-02  5.10090660e-02
  5.35789924e-02  5.51976054e-02  5.17021123e-02  5.24692249e-02
  6.41536120e-02  6.37121123e-02  4.70080544e-02  5.16779337e-02
  5.17663299e-02  5.19459471e-02  4.97944697e-02  5.25211834e-02
  5.80759666e-02  5.87074581e-02  5.78217646e-02  5.65875356e-02
  6.32447854e-02  5.56116161e-02  2.24785240e-03  3.18598149e-02
  4.91054901e-02  5.91135285e-02  5.74394212e-02  5.24769476e-02
  5.17119816e-02  5.25408022e-02  5.26012671e-02  5.52557017e-02
  5.21009150e-02  5.22669282e-02  5.67374894e-02  5.65217433e-02
  6.60409386e-02  7.18963906e-02  6.73150106e-02  6.52190894e-02
  6.42050079e-02  6.33653761e-02  6.49332509e-02  6.37371221e-02
  6.33828878e-02  6.40603759e-02  6.41691133e-02  6.23078465e-02
  6.33463466e-02  5.92079084e-02  5.71351642e-02  5.46519241e-02
  6.28087314e-02  5.37066867e-02  5.20512005e-02  5.26930846e-02
  5.06004454e-02  5.45052055e-02  5.48963099e-02  5.62282195e-02
  6.00818793e-02  5.60495671e-02  5.67865056e-02  5.29130211e-02
  5.84326976e-02  5.35644986e-02  5.54379915e-02  6.00866148e-02
  6.39773256e-02  6.31841711e-02  6.58993355e-02  6.49077795e-02
  6.57378755e-02  5.54159541e-02  5.52008277e-02  5.51804525e-02
  5.51170346e-02  5.51046962e-02  5.51215556e-02  5.53492772e-02
  5.56470977e-02  5.73456205e-02  5.55170257e-02  5.63709254e-02
  5.58194444e-02  5.49919502e-02  5.34564629e-02  5.34022089e-02
  5.05327461e-02  5.03925010e-02  5.10686631e-02  5.37365295e-02
  5.44184034e-02  5.41985266e-02  5.20446181e-02  5.27953767e-02
  5.29035757e-02  5.36494501e-02  5.34137947e-02  5.26438113e-02
  5.33574716e-02  5.14964370e-02  5.21705188e-02  5.28889099e-02
  5.15009469e-02  5.04401710e-02  5.12474200e-02  5.12115587e-02
  5.04454995e-02  5.08658932e-02  5.01615926e-02  5.01913526e-02
  5.60513972e-02  5.14574109e-02  5.14393681e-02  5.55731923e-02
  5.54385107e-02  5.52144556e-02  5.56294478e-02  5.07296500e-02
  5.00116298e-02  5.24294006e-02  5.12842731e-02  4.89071448e-02
  4.87661097e-02  5.39123554e-02  5.34587060e-02  5.39423381e-02
  5.11556815e-02  5.39380105e-02  5.51243583e-02  5.83641835e-02
  5.29599831e-02  5.43028115e-02  4.82065557e-02  5.06830325e-02
  5.53999135e-02  5.68876658e-02  5.32983839e-02  5.27307339e-02
  5.36618168e-02  5.07284964e-02  5.41810246e-02  5.36806826e-02
  5.23215572e-02  5.24197624e-02  5.26693487e-02  6.51165438e-02
  6.37070767e-02  5.87499776e-02  6.17649493e-02  6.58899280e-02
  6.29543540e-02  6.34201127e-02  6.54015283e-02  6.40713409e-02
  6.24806824e-02  6.71051922e-02  6.73085674e-02  6.69075153e-02
  6.45238429e-02  6.34242932e-02  6.65508344e-02  6.62051873e-02
  6.61660455e-02  6.49417650e-02  6.57396683e-02  6.47108467e-02
  6.47390381e-02  6.39618029e-02  6.35429248e-02  6.16644424e-02
  6.25325668e-02  6.30877613e-02  6.41617480e-02  6.40488367e-02
  6.40881554e-02  6.38743952e-02  6.41699188e-02  6.42517129e-02
  6.40427365e-02  6.43879270e-02  6.42338169e-02  6.15058899e-02
  6.40171846e-02  6.42448493e-02  6.39559442e-02  6.34729174e-02
  6.30591603e-02  6.39593108e-02  6.41006509e-02  6.43466546e-02
  6.38433527e-02  6.36785929e-02  6.34448041e-02  6.38960878e-02
  6.36096017e-02  6.32572492e-02  6.37070751e-02  6.35566381e-02
  6.25369393e-02  6.22498455e-02  6.30234891e-02  6.35345296e-02
  6.42944994e-02  6.41638008e-02  6.69284593e-02  6.72926651e-02
  6.54019204e-02  6.36946046e-02  5.07853094e-02  5.36966645e-02
  5.85616929e-02  5.70167813e-02  6.25419200e-02  6.26595149e-02
  7.28709885e-02  6.57977248e-02  6.24096520e-02  6.64706494e-02
  6.72842668e-02  6.24933175e-02  5.52166590e-02  5.51143477e-02
  5.50916461e-02  6.52894126e-02  4.98069657e-02  4.87409068e-02
  5.00648910e-02  5.05453751e-02  5.04257158e-02  5.93238116e-02
  4.88879796e-02  4.99329714e-02  5.10708483e-02  5.83930800e-02
  5.17884068e-02  5.16966919e-02  5.20565038e-02  5.21734926e-02
  6.72877287e-02  5.04002236e-02  5.36444210e-02  4.87523150e-02
  4.70222448e-02  4.98508413e-02  5.91521691e-02  6.05530018e-02
  4.70191826e-02  5.41162778e-02  5.68454865e-02  4.97123294e-02
  5.02640791e-02  5.10483096e-02  5.13832491e-02  5.06123201e-02
  5.17517210e-02  5.17202696e-02  7.23325059e-02  6.87778389e-02
  7.33809692e-02  6.15321679e-02  6.69911431e-02  6.50024857e-02
  6.53717115e-02  7.01607388e-02  6.37205426e-02  6.70663091e-02
  6.36586587e-02  6.00802330e-02  4.94963472e-02  5.32095066e-02
  4.88536136e-02  4.57903317e-02  4.59856445e-02  6.02734486e-02
  5.91744215e-02  5.11070233e-02  4.88536136e-02  2.05394489e-04
  1.78901986e-04  6.20267606e-04  1.16715456e-03  3.17789960e-04
  2.68460775e-04  5.26991496e-04  3.63516783e-04  1.37050661e-04
  2.76586839e-04  1.19458999e-04  2.19106854e-03  3.18473579e-03
  3.31642192e-03  2.61855952e-05  5.45577947e-04  3.46193332e-04
  3.44729038e-04  2.55557810e-06  8.74464990e-05  3.53012038e-04
  3.58892826e-04  5.22753505e-04  1.08909425e-02  6.53891360e-03
  4.80500367e-04  1.63412473e-03  1.41264287e-02  1.16908375e-02
  4.69231729e-03  1.10872068e-02  1.21413176e-02  5.88989404e-03
  7.91952765e-03  4.68485032e-03  4.72084861e-03  5.37464559e-03
  4.14866156e-03  7.02021986e-03  1.00534296e-02  2.34355818e-02
  1.72906959e-02  7.55596184e-03  6.71476314e-03  7.46830033e-03
  1.88025814e-04  7.94362251e-04  8.15146557e-04  3.20753077e-03
  4.62335768e-04  7.65138038e-04  4.87832134e-04  1.53047348e-03
  6.38126903e-04  3.39706148e-04  6.58273540e-04  2.30117034e-03
  2.97478640e-03  3.34863492e-04  3.01587979e-04  9.36775199e-04
  4.57853331e-04  2.50865884e-03  3.65107358e-04  5.60724249e-04
  7.66565293e-04  2.30367114e-03  3.82154648e-03  5.96719533e-03
  1.01288493e-03  3.82182142e-04  2.46607226e-04  3.12034877e-04
  4.22033420e-04  1.11535028e-03  3.09984488e-05  1.82267686e-03
  3.64801518e-03  1.10212723e-03  1.05642415e-03  5.85834930e-05
  3.16938967e-03 -3.08020705e-05  6.09969450e-04  3.41838376e-04
  2.53219853e-04  2.78378741e-04  1.56824345e-04  4.26652066e-04
  4.41182679e-04 -9.42797512e-05  2.94831116e-04  5.62473826e-04
  6.28128642e-04  5.94038608e-04  5.48780544e-04  6.05011427e-04
  5.44354717e-04  4.43015093e-04  3.01488101e-04  4.02256381e-04
  1.38335527e-04  8.03598012e-05  4.53332983e-05  1.15955458e-04
  7.11320126e-04  7.13263348e-04  9.27140697e-04 -5.14772336e-05
  6.86923997e-04  4.64910048e-04 -1.55719717e-03  2.33785267e-04
  3.80422960e-04  2.02538991e-04  3.51876667e-04  5.06831727e-05
  4.26174158e-05  4.24853096e-04 -3.87947196e-05  3.80059265e-04
  2.81631402e-04  1.63153927e-04  1.06428142e-03  6.27519166e-04
  7.45469780e-04  2.35042872e-04  1.06152667e-03  8.42410303e-05
  1.31579605e-03  2.19371627e-03  1.28623757e-03  1.27703157e-03
  2.74525643e-05  7.30565681e-05  4.12501868e-05  1.22908806e-04
  3.54369157e-05  8.03267760e-04  1.61729289e-03  1.01081490e-03
  1.30731610e-03  1.05809780e-03  1.22261611e-03  6.98328458e-04
  1.43059659e-03  1.08061003e-03  1.77796288e-03  6.32820662e-04
  3.41635823e-04  2.08904257e-03  1.30098889e-03  4.05605160e-04
 -2.01197301e-04  9.10324138e-04  7.76567357e-04  8.22909815e-04
  5.42053853e-04  4.92615423e-04  1.74058033e-04  4.43026950e-04
  6.28294810e-04  1.65560914e-04  1.58058393e-04  1.65392432e-04
  8.00854694e-05  2.46667460e-04  1.45659437e-03 -1.05402189e-04
  1.29094007e-04  3.30519415e-05  6.38592441e-05  7.55545803e-05
  1.18265669e-04  4.24759183e-06  5.62432502e-05  1.91364143e-07
  4.13824266e-04  6.92305917e-04  1.02383008e-03  8.11423686e-04
  2.55180297e-04  2.49435618e-04 -1.05175899e-03 -1.10277246e-05
 -6.32910259e-05 -2.61934050e-04 -2.14924013e-04  7.44899675e-04
 -9.71916726e-05  3.58817576e-04 -4.81118103e-05  7.79548246e-04
  4.27821783e-05  3.72682016e-03  5.45116407e-04  1.59298310e-03
  3.53555400e-05  1.59472169e-04 -6.78374038e-06  1.24942286e-03
  1.40371961e-02  2.45735950e-02  2.51290083e-02  1.32930260e-02
  2.16868458e-02  2.33117265e-02  3.64367481e-03  1.47974322e-04
  4.59207862e-04  5.77076587e-04  3.03459024e-04  7.15784091e-04
  7.03348159e-04  3.16110957e-02  2.92480382e-02  3.22926599e-02
  2.51844292e-02  2.82234473e-02  2.70992169e-02  2.73035646e-02
  3.01511565e-02  2.63799481e-02  2.79542077e-02  2.63045748e-02
  2.49436526e-02  1.98122934e-02  2.46801237e-02  2.42000149e-02
  4.16506972e-03  7.46868158e-20]
Iteracoes: 10

vv relatorio de barras vv area 1 vv

|          BARRA           |         TENSAO       |        GERACAO      |         CARGA       |   SHUNT  |
| NUM |     NOME     |  T  |    MOD    |    ANG   |    MW    |   MVAr   |    MW    |   MVAr   |    MVAr  |
----------------------------------------------------------------------------------------------------------
|  1  | Barra------1 |  0  |   1.025   |  -62.19  |  -0.000  |  -0.000  |  93.273  |  50.782  |  0.000   |
----------------------------------------------------------------------------------------------------------
|  2  | Barra------2 |  0  |   1.033   |  -59.92  |  0.000   |  0.000   |  58.036  |  15.545  |  0.000   |
----------------------------------------------------------------------------------------------------------
|  3  | Barra------3 |  0  |   0.990   |  -61.23  |  -0.000  |  -0.000  |  20.727  |  0.000   |  0.000   |
----------------------------------------------------------------------------------------------------------
|  4  | Barra------4 |  0  |   1.018   |  -62.40  |  -0.000  |  -0.000  |  0.000   |  0.000   |  0.000   |
----------------------------------------------------------------------------------------------------------
|  5  | Barra------5 |  0  |   1.015   |  -63.48  |  0.000   |  0.000   | 365.837  | 134.727  |  0.000   |
----------------------------------------------------------------------------------------------------------
|  6  | Barra------6 |  0  |   1.028   |  -60.76  |  -0.000  |  -0.000  | 124.364  |  42.491  |  0.000   |
----------------------------------------------------------------------------------------------------------
|  7  | Barra------7 |  0  |   0.988   |  -61.90  |  0.000   |  -0.000  |  0.000   |  0.000   |  0.000   |
----------------------------------------------------------------------------------------------------------
|  8  | Barra------8 |  1  |   1.015   |  -64.86  |  -5.000  |  51.275  |  60.109  |  14.509  |  0.000   |
----------------------------------------------------------------------------------------------------------
|  9  | Barra------9 |  0  |   1.000   |  -65.27  |  -0.000  |  0.000   |  99.491  |  44.564  |  0.000   |
----------------------------------------------------------------------------------------------------------
| 10  | Barra-----10 |  1  |   1.020   |  -66.87  |  -5.000  |  28.305  | 153.382  |  34.200  |  0.000   |
----------------------------------------------------------------------------------------------------------

|          BARRA           |         TENSAO       |        GERACAO      |         CARGA       |   SHUNT  |
| NUM |     NOME     |  T  |    MOD    |    ANG   |    MW    |   MVAr   |    MW    |   MVAr   |    MVAr  |
----------------------------------------------------------------------------------------------------------
| 11  | Barra-----11 |  0  |   1.004   |  -65.57  |  -0.000  |  -0.000  |  86.018  |  21.764  |  0.000   |
----------------------------------------------------------------------------------------------------------
| 12  | Barra-----12 |  0  |   0.994   |  -62.92  |  0.000   |  0.000   |  0.000   |  0.000   |  0.000   |
----------------------------------------------------------------------------------------------------------
| 13  | Barra-----13 |  0  |   0.997   |  -68.78  |  0.000   |  0.000   |  60.109  |  10.364  |  0.000   |
----------------------------------------------------------------------------------------------------------
| 14  | Barra-----14 |  0  |   0.984   |  -70.58  |  -0.000  |  -0.000  | 165.818  |  62.182  |  0.000   |
----------------------------------------------------------------------------------------------------------
| 15  | Barra-----15 |  0  |   1.004   |  -72.76  |  0.000   |  0.000   | 131.307  |  23.836  |  0.000   |
----------------------------------------------------------------------------------------------------------
| 16  | Barra-----16 |  0  |   0.996   |  -66.84  |  0.000   |  -0.000  |  0.000   |  0.000   |  0.000   |
----------------------------------------------------------------------------------------------------------
| 17  | Barra-----17 |  0  |   1.050   |  -78.61  |  0.000   |  -0.000  | 581.401  | 228.000  |  0.000   |
----------------------------------------------------------------------------------------------------------
| 19  | Barra-----19 |  0  |   0.980   |  -66.83  |  -0.000  |  -0.000  |  0.000   |  0.000   |  0.000   |
----------------------------------------------------------------------------------------------------------
| 20  | Barra-----20 |  1  |   1.001   |  -70.84  | -10.000  |  45.794  | 616.637  | 124.364  |  0.000   |
----------------------------------------------------------------------------------------------------------
| 21  | Barra-----21 |  0  |   0.973   |  -66.59  |  0.000   |  -0.000  |  79.800  |  1.036   |  0.000   |
----------------------------------------------------------------------------------------------------------

|          BARRA           |         TENSAO       |        GERACAO      |         CARGA       |   SHUNT  |
| NUM |     NOME     |  T  |    MOD    |    ANG   |    MW    |   MVAr   |    MW    |   MVAr   |    MVAr  |
----------------------------------------------------------------------------------------------------------
| 22  | Barra-----22 |  0  |   0.995   |  -70.41  |  -0.000  |  -0.000  |  83.946  |  23.836  |  0.000   |
----------------------------------------------------------------------------------------------------------
| 23  | Barra-----23 |  0  |   1.049   |  -64.53  |  0.000   |  0.000   |  21.764  |  7.255   |  0.000   |
----------------------------------------------------------------------------------------------------------
| 24  | Barra-----24 |  0  |   1.005   |  -62.33  |  0.000   |  0.000   |  0.000   |  0.000   |  0.000   |
----------------------------------------------------------------------------------------------------------
| 25  | Barra-----25 |  0  |   1.021   |  -67.09  |  -0.000  |  -0.000  |  46.636  |  12.436  |  0.000   |
----------------------------------------------------------------------------------------------------------
| 26  | Barra-----26 |  0  |   0.996   |  -70.33  |  0.000   |  0.000   |  29.018  |  9.327   |  0.000   |
----------------------------------------------------------------------------------------------------------
| 27  | Barra-----27 |  0  |   0.972   |  -73.52  |  0.000   |  -0.000  |  71.509  |  13.473  |  0.000   |
----------------------------------------------------------------------------------------------------------
| 33  | Barra-----33 |  0  |   0.876   |  -67.77  |  -0.000  |  -0.000  |  57.000  |  6.218   |  0.000   |
----------------------------------------------------------------------------------------------------------
| 34  | Barra-----34 |  0  |   0.959   |  -68.38  |  0.000   |  -0.000  |  0.000   |  0.000   |  0.000   |
----------------------------------------------------------------------------------------------------------
| 35  | Barra-----35 |  0  |   0.969   |  -97.15  |  0.000   |  0.000   |  0.000   |  0.000   |  0.000   |
----------------------------------------------------------------------------------------------------------
| 36  | Barra-----36 |  0  |   0.974   |  -93.48  |  -0.000  |  0.000   |  0.000   |  0.000   |  0.000   |
----------------------------------------------------------------------------------------------------------

|          BARRA           |         TENSAO       |        GERACAO      |         CARGA       |   SHUNT  |
| NUM |     NOME     |  T  |    MOD    |    ANG   |    MW    |   MVAr   |    MW    |   MVAr   |    MVAr  |
----------------------------------------------------------------------------------------------------------
| 37  | Barra-----37 |  0  |   0.862   |  -61.69  |  -0.000  |  -0.000  |  88.091  |  33.164  |  0.000   |
----------------------------------------------------------------------------------------------------------
| 38  | Barra-----38 |  0  |   0.868   |  -67.85  |  -0.000  |  0.000   | 160.637  |  18.655  |  0.000   |
----------------------------------------------------------------------------------------------------------
| 39  | Barra-----39 |  0  |   0.990   |  -66.72  |  0.000   |  -0.000  |  0.000   |  0.000   |  0.000   |
----------------------------------------------------------------------------------------------------------
| 40  | Barra-----40 |  0  |   0.874   |  -68.05  |  0.000   |  0.000   |  47.673  | -21.764  |  0.000   |
----------------------------------------------------------------------------------------------------------
| 41  | Barra-----41 |  0  |   0.861   |  -64.07  |  0.000   |  0.000   |  89.127  |  0.000   |  0.000   |
----------------------------------------------------------------------------------------------------------
| 42  | Barra-----42 |  0  |   0.969   |  -68.53  |  -0.000  |  0.000   |  0.000   |  0.000   |  0.000   |
----------------------------------------------------------------------------------------------------------
| 43  | Barra-----43 |  0  |   0.889   |  -78.61  |  -0.000  |  -0.000  |  40.418  |  9.327   |  0.000   |
----------------------------------------------------------------------------------------------------------
| 44  | Barra-----44 |  0  |   0.933   |  -82.97  |  0.000   |  0.000   | 202.091  |  30.055  |  0.000   |
----------------------------------------------------------------------------------------------------------
| 45  | Barra-----45 |  0  |   0.957   |  -80.56  |  0.000   |  0.000   |  0.000   |  0.000   |  0.000   |
----------------------------------------------------------------------------------------------------------
| 46  | Barra-----46 |  0  |   0.960   |  -76.09  |  -0.000  |  -0.000  |  0.000   |  0.000   |  0.000   |
----------------------------------------------------------------------------------------------------------

|          BARRA           |         TENSAO       |        GERACAO      |         CARGA       |   SHUNT  |
| NUM |     NOME     |  T  |    MOD    |    ANG   |    MW    |   MVAr   |    MW    |   MVAr   |    MVAr  |
----------------------------------------------------------------------------------------------------------
| 47  | Barra-----47 |  0  |   0.920   |  -90.91  |  -0.000  |  -0.000  |  60.109  |  12.229  |  0.000   |
----------------------------------------------------------------------------------------------------------
| 48  | Barra-----48 |  0  |   0.921   |  -76.98  |  0.000   |  0.000   |  42.491  |  19.691  |  0.000   |
----------------------------------------------------------------------------------------------------------
| 49  | Barra-----49 |  0  |   0.957   |  -12.60  |  -0.000  |  -0.000  |  95.346  |  26.945  |  0.000   |
----------------------------------------------------------------------------------------------------------
| 51  | Barra-----51 |  0  |   0.803   |  -44.74  |  -0.000  |  -0.000  |  -5.182  |  5.182   |  0.000   |
----------------------------------------------------------------------------------------------------------
| 52  | Barra-----52 |  0  |   0.815   |  -62.71  |  -0.000  |  0.000   |  63.218  |  29.018  |  0.000   |
----------------------------------------------------------------------------------------------------------
| 53  | Barra-----53 |  0  |   0.887   |  -79.96  |  0.000   |  0.000   |  71.509  |  3.109   |  0.000   |
----------------------------------------------------------------------------------------------------------
| 54  | Barra-----54 |  0  |   0.905   |  -78.73  |  -0.000  |  -0.000  |  10.364  |  1.036   |  0.000   |
----------------------------------------------------------------------------------------------------------
| 55  | Barra-----55 |  0  |   0.909   |  -70.83  |  0.000   |  0.000   |  22.800  |  10.364  |  0.000   |
----------------------------------------------------------------------------------------------------------
| 57  | Barra-----57 |  0  |   1.013   |  -73.41  |  0.000   |  0.000   | 101.564  |  20.727  |  0.000   |
----------------------------------------------------------------------------------------------------------
| 58  | Barra-----58 |  0  |   0.976   |  -73.50  |  -0.000  |  -0.000  |  14.509  |  1.036   |  0.000   |
----------------------------------------------------------------------------------------------------------

|          BARRA           |         TENSAO       |        GERACAO      |         CARGA       |   SHUNT  |
| NUM |     NOME     |  T  |    MOD    |    ANG   |    MW    |   MVAr   |    MW    |   MVAr   |    MVAr  |
----------------------------------------------------------------------------------------------------------
| 59  | Barra-----59 |  0  |   0.967   |  -73.42  |  -0.000  |  0.000   | 225.927  | 109.855  |  0.000   |
----------------------------------------------------------------------------------------------------------
| 60  | Barra-----60 |  0  |   0.983   |  -76.42  |  -0.000  |  0.000   |  0.000   |  0.000   |  0.000   |
----------------------------------------------------------------------------------------------------------
| 61  | Barra-----61 |  0  |   0.982   |  -71.79  |  0.000   |  0.000   | 235.255  | 114.000  |  0.000   |
----------------------------------------------------------------------------------------------------------
| 62  | Barra-----62 |  0  |   1.007   |  -69.91  |  -0.000  |  -0.000  |  0.000   |  0.000   |  0.000   |
----------------------------------------------------------------------------------------------------------
| 63  | Barra-----63 |  1  |   0.958   |  -86.69  |  0.000   |  43.237  |  72.546  |  31.091  |  0.000   |
----------------------------------------------------------------------------------------------------------
| 64  | Barra-----64 |  0  |   0.945   |  -82.01  |  0.000   |  0.000   |  0.000   |  0.000   |  0.000   |
----------------------------------------------------------------------------------------------------------
| 69  | Barra-----69 |  0  |   0.951   |  -98.04  |  0.000   |  0.000   |  0.000   |  0.000   |  0.000   |
----------------------------------------------------------------------------------------------------------
| 70  | Barra-----70 |  0  |   0.936   | -107.04  |  -0.000  |  0.000   |  58.036  |  20.727  |  0.000   |
----------------------------------------------------------------------------------------------------------
| 71  | Barra-----71 |  0  |   0.966   | -101.41  |  0.000   |  0.000   | 120.218  |  39.382  |  0.000   |
----------------------------------------------------------------------------------------------------------
| 72  | Barra-----72 |  0  |   0.961   |  -99.04  |  0.000   |  0.000   |  59.073  |  19.691  |  0.000   |
----------------------------------------------------------------------------------------------------------

|          BARRA           |         TENSAO       |        GERACAO      |         CARGA       |   SHUNT  |
| NUM |     NOME     |  T  |    MOD    |    ANG   |    MW    |   MVAr   |    MW    |   MVAr   |    MVAr  |
----------------------------------------------------------------------------------------------------------
| 73  | Barra-----73 |  0  |   0.951   |  -96.28  |  0.000   |  0.000   | 232.146  |  73.582  |  0.000   |
----------------------------------------------------------------------------------------------------------
| 74  | Barra-----74 |  0  |   0.955   |  -91.75  |  0.000   |  -0.000  |  0.000   |  0.000   |  0.000   |
----------------------------------------------------------------------------------------------------------
| 76  | Barra-----76 |  1  |   0.963   |  -98.14  |  -0.000  | 143.678  | 215.564  | 110.891  |  0.000   |
----------------------------------------------------------------------------------------------------------
| 77  | Barra-----77 |  0  |   0.977   |  -96.55  |  -0.000  |  0.000   |  76.691  |  29.018  |  0.000   |
----------------------------------------------------------------------------------------------------------
| 78  | Barra-----78 |  0  |   0.983   |  -95.64  |  0.000   |  0.000   |  0.000   |  0.000   |  0.000   |
----------------------------------------------------------------------------------------------------------
| 79  | Barra-----79 |  0  |   0.969   |  -96.44  |  -0.000  |  -0.000  |  49.745  |  14.509  |  0.000   |
----------------------------------------------------------------------------------------------------------
| 80  | Barra-----80 |  0  |   0.980   |  -97.21  |  -0.000  |  -0.000  |  29.018  |  7.255   |  0.000   |
----------------------------------------------------------------------------------------------------------
| 81  | Barra-----81 |  0  |   0.993   |  -89.49  |  -0.000  |  -0.000  |  0.000   |  0.000   |  0.000   |
----------------------------------------------------------------------------------------------------------
| 84  | Barra-----84 |  1  |   1.025   |  -88.73  | 375.000  | 153.343  |  38.345  |  13.473  |  0.000   |
----------------------------------------------------------------------------------------------------------
| 85  | Barra-----85 |  0  |   0.985   |  -83.58  |  0.000   |  0.000   |  0.000   |  0.000   |  0.000   |
----------------------------------------------------------------------------------------------------------

|          BARRA           |         TENSAO       |        GERACAO      |         CARGA       |   SHUNT  |
| NUM |     NOME     |  T  |    MOD    |    ANG   |    MW    |   MVAr   |    MW    |   MVAr   |    MVAr  |
----------------------------------------------------------------------------------------------------------
| 86  | Barra-----86 |  0  |   0.989   |  -80.05  |  -0.000  |  0.000   |  0.000   |  0.000   |  0.000   |
----------------------------------------------------------------------------------------------------------
| 87  | Barra-----87 |  0  |   0.992   |  -74.36  |  -0.000  |  0.000   |  0.000   |  0.000   |  0.000   |
----------------------------------------------------------------------------------------------------------
| 88  | Barra-----88 |  0  |   0.978   |  -91.39  |  0.000   |  -0.000  |  0.000   |  0.000   |  0.000   |
----------------------------------------------------------------------------------------------------------
| 89  | Barra-----89 |  0  |   0.981   |  -72.77  |  0.000   |  -0.000  |  45.807  |  0.000   |  0.000   |
----------------------------------------------------------------------------------------------------------
| 90  | Barra-----90 |  0  |   0.936   |  -69.51  |  -0.000  |  -0.000  |  68.400  |  0.000   |  0.000   |
----------------------------------------------------------------------------------------------------------
| 91  | Barra-----91 |  1  |   1.052   |  -73.84  | 155.000  |  95.755  |  18.033  |  0.000   |  0.000   |
----------------------------------------------------------------------------------------------------------
| 92  | Barra-----92 |  1  |   1.052   |  -68.39  | 290.000  | 115.720  |  16.375  |  0.000   |  0.000   |
----------------------------------------------------------------------------------------------------------
| 94  | Barra-----94 |  0  |   0.990   |  -75.66  |  -0.000  |  -0.000  |  62.493  |  0.000   |  0.000   |
----------------------------------------------------------------------------------------------------------
| 97  | Barra-----97 |  0  |   1.015   |  -78.10  |  0.000   |  -0.000  |  41.351  |  0.000   |  0.000   |
----------------------------------------------------------------------------------------------------------
| 98  | Barra-----98 |  1  |   1.000   |  -80.09  |  68.000  |  -4.206  |  69.126  |  0.000   |  0.000   |
----------------------------------------------------------------------------------------------------------

|          BARRA           |         TENSAO       |        GERACAO      |         CARGA       |   SHUNT  |
| NUM |     NOME     |  T  |    MOD    |    ANG   |    MW    |   MVAr   |    MW    |   MVAr   |    MVAr  |
----------------------------------------------------------------------------------------------------------
| 99  | Barra-----99 |  0  |   0.987   |  -86.20  |  0.000   |  0.000   |  86.536  |  0.000   |  0.000   |
----------------------------------------------------------------------------------------------------------
| 100 | Barra----100 |  0  |   1.004   |  -79.75  |  -0.000  |  -0.000  |  0.000   |  0.000   |  0.000   |
----------------------------------------------------------------------------------------------------------
| 102 | Barra----102 |  0  |   0.998   |  -80.74  |  0.000   |  -0.000  |  80.629  |  0.000   |  0.000   |
----------------------------------------------------------------------------------------------------------
| 103 | Barra----103 |  0  |   1.019   |  -75.38  |  0.000   |  -0.000  |  33.164  |  0.000   |  0.000   |
----------------------------------------------------------------------------------------------------------
| 104 | Barra----104 |  0  |   0.994   |  -83.02  |  -0.000  |  0.000   |  8.913   |  0.000   |  0.000   |
...